# generated using pymatgen
data_Ag3Sb
_symmetry_space_group_name_H-M   'P 1'
_cell_length_a   4.94835791
_cell_length_b   5.31827162
_cell_length_c   6.08450198
_cell_angle_alpha   90.00000000
_cell_angle_beta   90.00000000
_cell_angle_gamma   90.00000000
_symmetry_Int_Tables_number   1
_chemical_formula_structural   Ag3Sb
_chemical_formula_sum   'Ag6 Sb2'
_cell_volume   160.124082854
_cell_formula_units_Z   2
loop_
 _symmetry_equiv_pos_site_id
 _symmetry_equiv_pos_as_xyz
  1  'x, y, z'
loop_
 _atom_site_type_symbol
 _atom_site_label
 _atom_site_symmetry_multiplicity
 _atom_site_fract_x
 _atom_site_fract_y
 _atom_site_fract_z
 _atom_site_occupancy
  Ag  Ag1  1  0.500000  0.329829  0.000000  1
  Ag  Ag2  1  0.000000  0.670171  0.500000  1
  Ag  Ag3  1  0.000000  0.155892  0.252233  1
  Ag  Ag4  1  0.500000  0.844108  0.247767  1
  Ag  Ag5  1  0.000000  0.155892  0.747767  1
  Ag  Ag6  1  0.500000  0.844108  0.752233  1
  Sb  Sb7  1  0.000000  0.669053  0.000000  1
  Sb  Sb8  1  0.500000  0.330947  0.500000  1
