# generated using pymatgen
data_CuI4
_symmetry_space_group_name_H-M   'P 1'
_cell_length_a   6.88112506
_cell_length_b   6.88112506
_cell_length_c   6.88112506
_cell_angle_alpha   131.91856178
_cell_angle_beta   131.91856178
_cell_angle_gamma   70.35768014
_symmetry_Int_Tables_number   1
_chemical_formula_structural   CuI4
_chemical_formula_sum   'Cu1 I4'
_cell_volume   176.791853303
_cell_formula_units_Z   1
loop_
 _symmetry_equiv_pos_site_id
 _symmetry_equiv_pos_as_xyz
  1  'x, y, z'
loop_
 _atom_site_type_symbol
 _atom_site_label
 _atom_site_symmetry_multiplicity
 _atom_site_fract_x
 _atom_site_fract_y
 _atom_site_fract_z
 _atom_site_occupancy
  Cu  Cu1  1  1.000000  1.000000  0.000000  1
  I  I2  1  0.867493  0.391777  0.000000  1
  I  I3  1  0.391777  0.867493  1.000000  1
  I  I4  1  0.132507  0.132507  0.524284  1
  I  I5  1  0.608223  0.608223  0.475716  1
