# generated using pymatgen
data_Cu11Sb3
_symmetry_space_group_name_H-M   'P 1'
_cell_length_a   4.32139945
_cell_length_b   4.82201708
_cell_length_c   19.25427355
_cell_angle_alpha   90.00000000
_cell_angle_beta   90.00000000
_cell_angle_gamma   90.00000000
_symmetry_Int_Tables_number   1
_chemical_formula_structural   Cu11Sb3
_chemical_formula_sum   'Cu22 Sb6'
_cell_volume   401.217894568
_cell_formula_units_Z   2
loop_
 _symmetry_equiv_pos_site_id
 _symmetry_equiv_pos_as_xyz
  1  'x, y, z'
loop_
 _atom_site_type_symbol
 _atom_site_label
 _atom_site_symmetry_multiplicity
 _atom_site_fract_x
 _atom_site_fract_y
 _atom_site_fract_z
 _atom_site_occupancy
  Cu  Cu1  1  1.000000  0.803498  0.000000  1
  Cu  Cu2  1  0.000000  0.350012  0.927054  1
  Cu  Cu3  1  0.000000  0.350012  0.072946  1
  Cu  Cu4  1  0.000000  0.339577  0.786055  1
  Cu  Cu5  1  0.000000  0.339577  0.213945  1
  Cu  Cu6  1  0.500000  0.654395  0.926692  1
  Cu  Cu7  1  0.500000  0.654395  0.073308  1
  Cu  Cu8  1  0.500000  0.652773  0.780086  1
  Cu  Cu9  1  0.500000  0.652773  0.219914  1
  Cu  Cu10  1  0.500000  0.197444  0.852250  1
  Cu  Cu11  1  0.500000  0.197444  0.147750  1
  Cu  Cu12  1  0.000000  0.303498  0.500000  1
  Cu  Cu13  1  0.000000  0.850012  0.427054  1
  Cu  Cu14  1  0.000000  0.850012  0.572946  1
  Cu  Cu15  1  0.000000  0.839577  0.286055  1
  Cu  Cu16  1  0.000000  0.839577  0.713945  1
  Cu  Cu17  1  0.500000  0.154395  0.426692  1
  Cu  Cu18  1  0.500000  0.154395  0.573308  1
  Cu  Cu19  1  0.500000  0.152773  0.280086  1
  Cu  Cu20  1  0.500000  0.152773  0.719914  1
  Cu  Cu21  1  0.500000  0.697444  0.352250  1
  Cu  Cu22  1  0.500000  0.697444  0.647750  1
  Sb  Sb23  1  0.500000  0.165485  0.000000  1
  Sb  Sb24  1  0.000000  0.841307  0.854186  1
  Sb  Sb25  1  0.000000  0.841307  0.145814  1
  Sb  Sb26  1  0.500000  0.665485  0.500000  1
  Sb  Sb27  1  0.000000  0.341307  0.354186  1
  Sb  Sb28  1  0.000000  0.341307  0.645814  1
