# generated using pymatgen
data_SbI3
_symmetry_space_group_name_H-M   'P 1'
_cell_length_a   7.66681560
_cell_length_b   7.66681560
_cell_length_c   22.90703323
_cell_angle_alpha   90.00000000
_cell_angle_beta   90.00000000
_cell_angle_gamma   120.00000000
_symmetry_Int_Tables_number   1
_chemical_formula_structural   SbI3
_chemical_formula_sum   'Sb6 I18'
_cell_volume   1166.08313199
_cell_formula_units_Z   6
loop_
 _symmetry_equiv_pos_site_id
 _symmetry_equiv_pos_as_xyz
  1  'x, y, z'
loop_
 _atom_site_type_symbol
 _atom_site_label
 _atom_site_symmetry_multiplicity
 _atom_site_fract_x
 _atom_site_fract_y
 _atom_site_fract_z
 _atom_site_occupancy
  Sb  Sb1  1  0.666667  0.333333  0.165400  1
  Sb  Sb2  1  0.333333  0.666667  0.834600  1
  Sb  Sb3  1  0.333333  0.666667  0.498733  1
  Sb  Sb4  1  0.000000  0.000000  0.167933  1
  Sb  Sb5  1  0.000000  0.000000  0.832067  1
  Sb  Sb6  1  0.666667  0.333333  0.501267  1
  I  I7  1  0.663468  0.976413  0.911968  1
  I  I8  1  0.312945  0.336532  0.911968  1
  I  I9  1  0.023587  0.687055  0.911968  1
  I  I10  1  0.336532  0.023587  0.088032  1
  I  I11  1  0.687055  0.663468  0.088032  1
  I  I12  1  0.976413  0.312945  0.088032  1
  I  I13  1  0.330135  0.309747  0.245301  1
  I  I14  1  0.979612  0.669865  0.245301  1
  I  I15  1  0.690253  0.020388  0.245301  1
  I  I16  1  0.003199  0.356920  0.421365  1
  I  I17  1  0.353721  0.996801  0.421365  1
  I  I18  1  0.643080  0.646279  0.421365  1
  I  I19  1  0.996801  0.643080  0.578635  1
  I  I20  1  0.646279  0.003199  0.578635  1
  I  I21  1  0.356920  0.353721  0.578635  1
  I  I22  1  0.669865  0.690253  0.754699  1
  I  I23  1  0.020388  0.330135  0.754699  1
  I  I24  1  0.309747  0.979612  0.754699  1
