# generated using pymatgen
data_Cs3Cu2I5
_symmetry_space_group_name_H-M   'P 1'
_cell_length_a   10.41957937
_cell_length_b   11.83941423
_cell_length_c   14.59253517
_cell_angle_alpha   90.00000000
_cell_angle_beta   90.00000000
_cell_angle_gamma   90.00000000
_symmetry_Int_Tables_number   1
_chemical_formula_structural   Cs3Cu2I5
_chemical_formula_sum   'Cs12 Cu8 I20'
_cell_volume   1800.16018321
_cell_formula_units_Z   4
loop_
 _symmetry_equiv_pos_site_id
 _symmetry_equiv_pos_as_xyz
  1  'x, y, z'
loop_
 _atom_site_type_symbol
 _atom_site_label
 _atom_site_symmetry_multiplicity
 _atom_site_fract_x
 _atom_site_fract_y
 _atom_site_fract_z
 _atom_site_occupancy
  Cs  Cs1  1  0.552638  0.987314  0.823878  1
  Cs  Cs2  1  0.052638  0.512686  0.676122  1
  Cs  Cs3  1  0.447362  0.487314  0.176122  1
  Cs  Cs4  1  0.947362  0.012686  0.323878  1
  Cs  Cs5  1  0.447362  0.012686  0.176122  1
  Cs  Cs6  1  0.947362  0.487314  0.323878  1
  Cs  Cs7  1  0.552638  0.512686  0.823878  1
  Cs  Cs8  1  0.052638  0.987314  0.676122  1
  Cs  Cs9  1  0.906625  0.750000  0.048417  1
  Cs  Cs10  1  0.406625  0.750000  0.451583  1
  Cs  Cs11  1  0.093375  0.250000  0.951583  1
  Cs  Cs12  1  0.593375  0.250000  0.548417  1
  Cu  Cu13  1  0.740716  0.250000  0.126695  1
  Cu  Cu14  1  0.286811  0.750000  0.044185  1
  Cu  Cu15  1  0.786811  0.750000  0.455815  1
  Cu  Cu16  1  0.713189  0.250000  0.955815  1
  Cu  Cu17  1  0.213189  0.250000  0.544185  1
  Cu  Cu18  1  0.259284  0.750000  0.873305  1
  Cu  Cu19  1  0.759284  0.750000  0.626695  1
  Cu  Cu20  1  0.240716  0.250000  0.373305  1
  I  I21  1  0.338941  0.750000  0.709536  1
  I  I22  1  0.838941  0.750000  0.790464  1
  I  I23  1  0.661059  0.250000  0.290464  1
  I  I24  1  0.161059  0.250000  0.209536  1
  I  I25  1  0.967199  0.250000  0.513038  1
  I  I26  1  0.203353  0.750000  0.210690  1
  I  I27  1  0.467199  0.250000  0.986962  1
  I  I28  1  0.032801  0.750000  0.486962  1
  I  I29  1  0.532801  0.750000  0.013038  1
  I  I30  1  0.296647  0.250000  0.710690  1
  I  I31  1  0.796647  0.250000  0.789310  1
  I  I32  1  0.703353  0.750000  0.289310  1
  I  I33  1  0.691899  0.562583  0.550664  1
  I  I34  1  0.191899  0.937417  0.949336  1
  I  I35  1  0.308101  0.062583  0.449336  1
  I  I36  1  0.808101  0.437417  0.050664  1
  I  I37  1  0.308101  0.437417  0.449336  1
  I  I38  1  0.808101  0.062583  0.050664  1
  I  I39  1  0.691899  0.937417  0.550664  1
  I  I40  1  0.191899  0.562583  0.949336  1
