# generated using pymatgen
data_Cs3Cu2Br5
_symmetry_space_group_name_H-M   'P 1'
_cell_length_a   9.84892126
_cell_length_b   11.10559257
_cell_length_c   13.85137938
_cell_angle_alpha   90.00000000
_cell_angle_beta   90.00000000
_cell_angle_gamma   90.00000000
_symmetry_Int_Tables_number   1
_chemical_formula_structural   Cs3Cu2Br5
_chemical_formula_sum   'Cs12 Cu8 Br20'
_cell_volume   1515.0376527
_cell_formula_units_Z   4
loop_
 _symmetry_equiv_pos_site_id
 _symmetry_equiv_pos_as_xyz
  1  'x, y, z'
loop_
 _atom_site_type_symbol
 _atom_site_label
 _atom_site_symmetry_multiplicity
 _atom_site_fract_x
 _atom_site_fract_y
 _atom_site_fract_z
 _atom_site_occupancy
  Cs  Cs1  1  0.401932  0.750000  0.454366  1
  Cs  Cs2  1  0.546603  0.514747  0.822483  1
  Cs  Cs3  1  0.098068  0.250000  0.954366  1
  Cs  Cs4  1  0.046603  0.514747  0.677517  1
  Cs  Cs5  1  0.453397  0.485253  0.177517  1
  Cs  Cs6  1  0.046603  0.985253  0.677517  1
  Cs  Cs7  1  0.546603  0.985253  0.822483  1
  Cs  Cs8  1  0.953397  0.485253  0.322483  1
  Cs  Cs9  1  0.953397  0.014747  0.322483  1
  Cs  Cs10  1  0.901932  0.750000  0.045634  1
  Cs  Cs11  1  0.598068  0.250000  0.545634  1
  Cs  Cs12  1  0.453397  0.014747  0.177517  1
  Cu  Cu13  1  0.747487  0.750000  0.630773  1
  Cu  Cu14  1  0.292361  0.750000  0.047831  1
  Cu  Cu15  1  0.252513  0.250000  0.369227  1
  Cu  Cu16  1  0.752513  0.250000  0.130773  1
  Cu  Cu17  1  0.207639  0.250000  0.547831  1
  Cu  Cu18  1  0.707639  0.250000  0.952169  1
  Cu  Cu19  1  0.792361  0.750000  0.452169  1
  Cu  Cu20  1  0.247487  0.750000  0.869227  1
  Br  Br21  1  0.531584  0.750000  0.011966  1
  Br  Br22  1  0.668167  0.250000  0.290560  1
  Br  Br23  1  0.298391  0.250000  0.707818  1
  Br  Br24  1  0.168167  0.250000  0.209440  1
  Br  Br25  1  0.031584  0.750000  0.488034  1
  Br  Br26  1  0.191585  0.936668  0.947255  1
  Br  Br27  1  0.701609  0.750000  0.292182  1
  Br  Br28  1  0.808415  0.063332  0.052745  1
  Br  Br29  1  0.308415  0.063332  0.447255  1
  Br  Br30  1  0.831833  0.750000  0.790560  1
  Br  Br31  1  0.968416  0.250000  0.511966  1
  Br  Br32  1  0.808415  0.436668  0.052745  1
  Br  Br33  1  0.468416  0.250000  0.988034  1
  Br  Br34  1  0.331833  0.750000  0.709440  1
  Br  Br35  1  0.691585  0.563332  0.552745  1
  Br  Br36  1  0.691585  0.936668  0.552745  1
  Br  Br37  1  0.308415  0.436668  0.447255  1
  Br  Br38  1  0.798391  0.250000  0.792182  1
  Br  Br39  1  0.201609  0.750000  0.207818  1
  Br  Br40  1  0.191585  0.563332  0.947255  1
