# generated using pymatgen
data_AuCl
_symmetry_space_group_name_H-M   'P 1'
_cell_length_a   6.69890539
_cell_length_b   6.69890539
_cell_length_c   6.69890539
_cell_angle_alpha   114.87945507
_cell_angle_beta   114.87945507
_cell_angle_gamma   99.12442110
_symmetry_Int_Tables_number   1
_chemical_formula_structural   AuCl
_chemical_formula_sum   'Au4 Cl4'
_cell_volume   225.906564653
_cell_formula_units_Z   4
loop_
 _symmetry_equiv_pos_site_id
 _symmetry_equiv_pos_as_xyz
  1  'x, y, z'
loop_
 _atom_site_type_symbol
 _atom_site_label
 _atom_site_symmetry_multiplicity
 _atom_site_fract_x
 _atom_site_fract_y
 _atom_site_fract_z
 _atom_site_occupancy
  Au  Au1  1  0.375000  0.625000  0.250000  1
  Au  Au2  1  0.875000  0.625000  0.250000  1
  Au  Au3  1  0.375000  0.625000  0.750000  1
  Au  Au4  1  0.375000  0.125000  0.750000  1
  Cl  Cl5  1  0.205242  0.205242  0.000000  1
  Cl  Cl6  1  0.794758  0.794758  0.000000  1
  Cl  Cl7  1  0.955242  0.455242  0.500000  1
  Cl  Cl8  1  0.544758  0.044758  0.500000  1
