# generated using pymatgen
data_Cs3Bi2I9
_symmetry_space_group_name_H-M   'P 1'
_cell_length_a   8.64940924
_cell_length_b   8.64940924
_cell_length_c   22.00995974
_cell_angle_alpha   89.44690175
_cell_angle_beta   90.55309825
_cell_angle_gamma   60.15703713
_symmetry_Int_Tables_number   1
_chemical_formula_structural   Cs3Bi2I9
_chemical_formula_sum   'Cs6 Bi4 I18'
_cell_volume   1427.99688141
_cell_formula_units_Z   2
loop_
 _symmetry_equiv_pos_site_id
 _symmetry_equiv_pos_as_xyz
  1  'x, y, z'
loop_
 _atom_site_type_symbol
 _atom_site_label
 _atom_site_symmetry_multiplicity
 _atom_site_fract_x
 _atom_site_fract_y
 _atom_site_fract_z
 _atom_site_occupancy
  Cs  Cs1  1  0.997229  0.997229  0.250000  1
  Cs  Cs2  1  0.669280  0.666439  0.577447  1
  Cs  Cs3  1  0.002771  0.002771  0.750000  1
  Cs  Cs4  1  0.333561  0.330720  0.077447  1
  Cs  Cs5  1  0.330720  0.333561  0.422553  1
  Cs  Cs6  1  0.666439  0.669280  0.922553  1
  Bi  Bi7  1  0.676444  0.654039  0.155758  1
  Bi  Bi8  1  0.323556  0.345961  0.844242  1
  Bi  Bi9  1  0.345961  0.323556  0.655758  1
  Bi  Bi10  1  0.654039  0.676444  0.344242  1
  I  I11  1  0.186173  0.647816  0.575049  1
  I  I12  1  0.813827  0.352185  0.424951  1
  I  I13  1  0.000619  0.496067  0.256817  1
  I  I14  1  0.146021  0.186403  0.917126  1
  I  I15  1  0.813597  0.853979  0.417126  1
  I  I16  1  0.352185  0.813827  0.075049  1
  I  I17  1  0.853979  0.813597  0.082874  1
  I  I18  1  0.848687  0.310124  0.089343  1
  I  I19  1  0.999381  0.503933  0.743183  1
  I  I20  1  0.496067  0.000619  0.243183  1
  I  I21  1  0.186403  0.146021  0.582874  1
  I  I22  1  0.503933  0.999381  0.756817  1
  I  I23  1  0.497205  0.497205  0.250000  1
  I  I24  1  0.310124  0.848687  0.410657  1
  I  I25  1  0.689876  0.151313  0.589343  1
  I  I26  1  0.151313  0.689876  0.910657  1
  I  I27  1  0.502795  0.502795  0.750000  1
  I  I28  1  0.647816  0.186173  0.924951  1
