# generated using pymatgen
data_Cs2SbBr6
_symmetry_space_group_name_H-M   'P 1'
_cell_length_a   13.80141574
_cell_length_b   13.80141574
_cell_length_c   13.80141574
_cell_angle_alpha   132.10088533
_cell_angle_beta   132.10088533
_cell_angle_gamma   70.06973607
_symmetry_Int_Tables_number   1
_chemical_formula_structural   Cs2SbBr6
_chemical_formula_sum   'Cs8 Sb4 Br24'
_cell_volume   1418.78721991
_cell_formula_units_Z   4
loop_
 _symmetry_equiv_pos_site_id
 _symmetry_equiv_pos_as_xyz
  1  'x, y, z'
loop_
 _atom_site_type_symbol
 _atom_site_label
 _atom_site_symmetry_multiplicity
 _atom_site_fract_x
 _atom_site_fract_y
 _atom_site_fract_z
 _atom_site_occupancy
  Cs  Cs1  1  0.375000  0.869040  0.994040  1
  Cs  Cs2  1  0.875000  0.380960  0.005960  1
  Cs  Cs3  1  0.130960  0.625000  0.005960  1
  Cs  Cs4  1  0.619040  0.125000  0.994040  1
  Cs  Cs5  1  0.619040  0.625000  0.494040  1
  Cs  Cs6  1  0.875000  0.869040  0.494040  1
  Cs  Cs7  1  0.375000  0.380960  0.505960  1
  Cs  Cs8  1  0.130960  0.125000  0.505960  1
  Sb  Sb9  1  0.750000  0.250000  0.500000  1
  Sb  Sb10  1  1.000000  0.000000  0.000000  1
  Sb  Sb11  1  0.500000  0.500000  0.000000  1
  Sb  Sb12  1  0.250000  0.750000  0.500000  1
  Br  Br13  1  0.999713  0.241319  0.241606  1
  Br  Br14  1  0.621100  0.621100  0.000000  1
  Br  Br15  1  0.119732  0.119732  0.000000  1
  Br  Br16  1  0.869732  0.369732  0.500000  1
  Br  Br17  1  0.630268  0.130268  0.500000  1
  Br  Br18  1  0.880268  0.880268  0.000000  1
  Br  Br19  1  0.378900  0.378900  0.000000  1
  Br  Br20  1  0.128900  0.628900  0.500000  1
  Br  Br21  1  0.999713  0.758107  0.758394  1
  Br  Br22  1  0.758681  0.000287  0.758394  1
  Br  Br23  1  0.500867  0.744824  0.243956  1
  Br  Br24  1  0.006911  0.750867  0.256044  1
  Br  Br25  1  0.494824  0.750867  0.743956  1
  Br  Br26  1  0.241893  0.000287  0.241606  1
  Br  Br27  1  0.249133  0.993089  0.743956  1
  Br  Br28  1  0.743089  0.499133  0.243956  1
  Br  Br29  1  0.255176  0.499133  0.756044  1
  Br  Br30  1  0.500867  0.256911  0.756044  1
  Br  Br31  1  0.249133  0.505176  0.256044  1
  Br  Br32  1  0.508107  0.249713  0.258394  1
  Br  Br33  1  0.991319  0.249713  0.741606  1
  Br  Br34  1  0.750287  0.008681  0.258394  1
  Br  Br35  1  0.750287  0.491893  0.741606  1
  Br  Br36  1  0.371100  0.871100  0.500000  1
