# generated using pymatgen
data_Cs3Cu2Cl5
_symmetry_space_group_name_H-M   'P 1'
_cell_length_a   9.47826320
_cell_length_b   10.63628765
_cell_length_c   13.30294592
_cell_angle_alpha   90.00000000
_cell_angle_beta   90.00000000
_cell_angle_gamma   90.00000000
_symmetry_Int_Tables_number   1
_chemical_formula_structural   Cs3Cu2Cl5
_chemical_formula_sum   'Cs12 Cu8 Cl20'
_cell_volume   1341.11698838
_cell_formula_units_Z   4
loop_
 _symmetry_equiv_pos_site_id
 _symmetry_equiv_pos_as_xyz
  1  'x, y, z'
loop_
 _atom_site_type_symbol
 _atom_site_label
 _atom_site_symmetry_multiplicity
 _atom_site_fract_x
 _atom_site_fract_y
 _atom_site_fract_z
 _atom_site_occupancy
  Cs  Cs1  1  0.538663  0.513182  0.821040  1
  Cs  Cs2  1  0.461337  0.486818  0.178960  1
  Cs  Cs3  1  0.961337  0.013182  0.321040  1
  Cs  Cs4  1  0.038663  0.986818  0.678960  1
  Cs  Cs5  1  0.392652  0.750000  0.454014  1
  Cs  Cs6  1  0.038663  0.513182  0.678960  1
  Cs  Cs7  1  0.607348  0.250000  0.545986  1
  Cs  Cs8  1  0.461337  0.013182  0.178960  1
  Cs  Cs9  1  0.892652  0.750000  0.045986  1
  Cs  Cs10  1  0.961337  0.486818  0.321040  1
  Cs  Cs11  1  0.107348  0.250000  0.954014  1
  Cs  Cs12  1  0.538663  0.986818  0.821040  1
  Cu  Cu13  1  0.264858  0.250000  0.362761  1
  Cu  Cu14  1  0.292275  0.750000  0.048966  1
  Cu  Cu15  1  0.235142  0.750000  0.862761  1
  Cu  Cu16  1  0.792275  0.750000  0.451034  1
  Cu  Cu17  1  0.735142  0.750000  0.637239  1
  Cu  Cu18  1  0.707725  0.250000  0.951034  1
  Cu  Cu19  1  0.764858  0.250000  0.137239  1
  Cu  Cu20  1  0.207725  0.250000  0.548966  1
  Cl  Cl21  1  0.679246  0.250000  0.293139  1
  Cl  Cl22  1  0.814713  0.066841  0.059089  1
  Cl  Cl23  1  0.803057  0.250000  0.797299  1
  Cl  Cl24  1  0.820754  0.750000  0.793139  1
  Cl  Cl25  1  0.023464  0.750000  0.489176  1
  Cl  Cl26  1  0.696943  0.750000  0.297299  1
  Cl  Cl27  1  0.685287  0.566841  0.559089  1
  Cl  Cl28  1  0.179246  0.250000  0.206861  1
  Cl  Cl29  1  0.320754  0.750000  0.706861  1
  Cl  Cl30  1  0.196943  0.750000  0.202701  1
  Cl  Cl31  1  0.314713  0.433159  0.440911  1
  Cl  Cl32  1  0.476536  0.250000  0.989176  1
  Cl  Cl33  1  0.185287  0.933159  0.940911  1
  Cl  Cl34  1  0.814713  0.433159  0.059089  1
  Cl  Cl35  1  0.314713  0.066841  0.440911  1
  Cl  Cl36  1  0.523464  0.750000  0.010824  1
  Cl  Cl37  1  0.976536  0.250000  0.510824  1
  Cl  Cl38  1  0.185287  0.566841  0.940911  1
  Cl  Cl39  1  0.685287  0.933159  0.559089  1
  Cl  Cl40  1  0.303057  0.250000  0.702701  1
