# generated using pymatgen
data_Ag3(Bi2Br3)7
_symmetry_space_group_name_H-M   'P 1'
_cell_length_a   13.02264928
_cell_length_b   15.00285764
_cell_length_c   14.18459367
_cell_angle_alpha   90.00000000
_cell_angle_beta   107.88253867
_cell_angle_gamma   90.00000000
_symmetry_Int_Tables_number   1
_chemical_formula_structural   Ag3(Bi2Br3)7
_chemical_formula_sum   'Ag6 Bi28 Br42'
_cell_volume   2637.45366703
_cell_formula_units_Z   2
loop_
 _symmetry_equiv_pos_site_id
 _symmetry_equiv_pos_as_xyz
  1  'x, y, z'
loop_
 _atom_site_type_symbol
 _atom_site_label
 _atom_site_symmetry_multiplicity
 _atom_site_fract_x
 _atom_site_fract_y
 _atom_site_fract_z
 _atom_site_occupancy
  Ag  Ag1  1  0.540920  0.841068  0.382276  1
  Ag  Ag2  1  0.540920  0.158932  0.382276  1
  Ag  Ag3  1  0.449922  0.347631  0.609693  1
  Ag  Ag4  1  0.449922  0.652369  0.609693  1
  Ag  Ag5  1  0.134027  0.336894  0.621977  1
  Ag  Ag6  1  0.134027  0.663106  0.621977  1
  Bi  Bi7  1  0.899619  0.000000  0.069285  1
  Bi  Bi8  1  0.880681  0.814737  0.387130  1
  Bi  Bi9  1  0.880681  0.185263  0.387130  1
  Bi  Bi10  1  0.754522  0.824805  0.029505  1
  Bi  Bi11  1  0.754522  0.175195  0.029505  1
  Bi  Bi12  1  0.639653  0.000000  0.080256  1
  Bi  Bi13  1  0.779498  0.324146  0.606845  1
  Bi  Bi14  1  0.779498  0.675854  0.606845  1
  Bi  Bi15  1  0.843668  0.892908  0.859673  1
  Bi  Bi16  1  0.843668  0.107092  0.859673  1
  Bi  Bi17  1  0.740630  0.500000  0.975152  1
  Bi  Bi18  1  0.651637  0.000000  0.717098  1
  Bi  Bi19  1  0.457659  0.397954  0.140508  1
  Bi  Bi20  1  0.457659  0.602046  0.140508  1
  Bi  Bi21  1  0.555235  0.105256  0.863380  1
  Bi  Bi22  1  0.555235  0.894744  0.863380  1
  Bi  Bi23  1  0.345785  0.500000  0.279569  1
  Bi  Bi24  1  0.264540  0.000000  0.020852  1
  Bi  Bi25  1  0.145212  0.396834  0.143388  1
  Bi  Bi26  1  0.145212  0.603166  0.143388  1
  Bi  Bi27  1  0.226293  0.174544  0.400554  1
  Bi  Bi28  1  0.226293  0.825456  0.400554  1
  Bi  Bi29  1  0.361811  0.500000  0.913286  1
  Bi  Bi30  1  0.245091  0.339287  0.972583  1
  Bi  Bi31  1  0.245091  0.660713  0.972583  1
  Bi  Bi32  1  0.189375  0.871325  0.823888  1
  Bi  Bi33  1  0.189375  0.128675  0.823888  1
  Bi  Bi34  1  0.088344  0.500000  0.928244  1
  Br  Br35  1  0.997975  0.777610  0.251504  1
  Br  Br36  1  0.997975  0.222390  0.251504  1
  Br  Br37  1  0.015078  0.500000  0.251641  1
  Br  Br38  1  0.908413  0.360562  0.464468  1
  Br  Br39  1  0.908413  0.639438  0.464468  1
  Br  Br40  1  0.851476  0.000000  0.305567  1
  Br  Br41  1  0.658351  0.500000  0.250630  1
  Br  Br42  1  0.819990  0.500000  0.697831  1
  Br  Br43  1  0.764248  0.858911  0.534946  1
  Br  Br44  1  0.764248  0.141089  0.534946  1
  Br  Br45  1  0.895634  0.361603  0.980084  1
  Br  Br46  1  0.895634  0.638397  0.980084  1
  Br  Br47  1  0.682687  0.777658  0.247663  1
  Br  Br48  1  0.682687  0.222342  0.247663  1
  Br  Br49  1  0.665426  0.277555  0.738270  1
  Br  Br50  1  0.665426  0.722445  0.738270  1
  Br  Br51  1  0.530865  0.000000  0.294255  1
  Br  Br52  1  0.574721  0.346630  0.464118  1
  Br  Br53  1  0.574721  0.653370  0.464118  1
  Br  Br54  1  0.429694  0.862686  0.031480  1
  Br  Br55  1  0.429694  0.137314  0.031480  1
  Br  Br56  1  0.588250  0.357882  0.974702  1
  Br  Br57  1  0.588250  0.642118  0.974702  1
  Br  Br58  1  0.424222  0.858293  0.538068  1
  Br  Br59  1  0.424222  0.141707  0.538068  1
  Br  Br60  1  0.472129  0.500000  0.711899  1
  Br  Br61  1  0.327238  0.781194  0.257884  1
  Br  Br62  1  0.327238  0.218806  0.257884  1
  Br  Br63  1  0.326058  0.748865  0.756615  1
  Br  Br64  1  0.326058  0.251135  0.756615  1
  Br  Br65  1  0.093619  0.863413  0.009871  1
  Br  Br66  1  0.093619  0.136587  0.009871  1
  Br  Br67  1  0.241548  0.353463  0.471842  1
  Br  Br68  1  0.241548  0.646537  0.471842  1
  Br  Br69  1  0.178000  0.000000  0.302221  1
  Br  Br70  1  0.295351  0.000000  0.733129  1
  Br  Br71  1  0.156791  0.500000  0.713098  1
  Br  Br72  1  0.090992  0.855367  0.535493  1
  Br  Br73  1  0.090992  0.144633  0.535493  1
  Br  Br74  1  0.014343  0.000000  0.744798  1
  Br  Br75  1  0.990864  0.270065  0.745036  1
  Br  Br76  1  0.990864  0.729935  0.745036  1
