# generated using pymatgen
data_Cs2AgBr3
_symmetry_space_group_name_H-M   'P 1'
_cell_length_a   4.82043830
_cell_length_b   14.08974245
_cell_length_c   14.65688496
_cell_angle_alpha   90.00000000
_cell_angle_beta   90.00000000
_cell_angle_gamma   90.00000000
_symmetry_Int_Tables_number   1
_chemical_formula_structural   Cs2AgBr3
_chemical_formula_sum   'Cs8 Ag4 Br12'
_cell_volume   995.477072964
_cell_formula_units_Z   4
loop_
 _symmetry_equiv_pos_site_id
 _symmetry_equiv_pos_as_xyz
  1  'x, y, z'
loop_
 _atom_site_type_symbol
 _atom_site_label
 _atom_site_symmetry_multiplicity
 _atom_site_fract_x
 _atom_site_fract_y
 _atom_site_fract_z
 _atom_site_occupancy
  Cs  Cs1  1  0.750000  0.988574  0.825945  1
  Cs  Cs2  1  0.250000  0.172446  0.519065  1
  Cs  Cs3  1  0.750000  0.827554  0.480935  1
  Cs  Cs4  1  0.750000  0.488574  0.674055  1
  Cs  Cs5  1  0.250000  0.511426  0.325945  1
  Cs  Cs6  1  0.250000  0.011426  0.174055  1
  Cs  Cs7  1  0.750000  0.327554  0.019065  1
  Cs  Cs8  1  0.250000  0.672446  0.980935  1
  Ag  Ag9  1  0.250000  0.255158  0.804238  1
  Ag  Ag10  1  0.750000  0.244842  0.304238  1
  Ag  Ag11  1  0.250000  0.755158  0.695762  1
  Ag  Ag12  1  0.750000  0.744842  0.195762  1
  Br  Br13  1  0.250000  0.137855  0.950874  1
  Br  Br14  1  0.750000  0.224832  0.712068  1
  Br  Br15  1  0.750000  0.862145  0.049126  1
  Br  Br16  1  0.250000  0.440306  0.859668  1
  Br  Br17  1  0.250000  0.775168  0.287932  1
  Br  Br18  1  0.750000  0.724832  0.787932  1
  Br  Br19  1  0.250000  0.275168  0.212068  1
  Br  Br20  1  0.250000  0.637855  0.549126  1
  Br  Br21  1  0.750000  0.059694  0.359668  1
  Br  Br22  1  0.750000  0.559694  0.140332  1
  Br  Br23  1  0.750000  0.362145  0.450874  1
  Br  Br24  1  0.250000  0.940306  0.640332  1
