# generated using pymatgen
data_Cu10Sb3
_symmetry_space_group_name_H-M   'P 1'
_cell_length_a   10.07653204
_cell_length_b   10.07653204
_cell_length_c   4.30219628
_cell_angle_alpha   90.00000000
_cell_angle_beta   90.00000000
_cell_angle_gamma   120.00000000
_symmetry_Int_Tables_number   1
_chemical_formula_structural   Cu10Sb3
_chemical_formula_sum   'Cu20 Sb6'
_cell_volume   378.305828423
_cell_formula_units_Z   2
loop_
 _symmetry_equiv_pos_site_id
 _symmetry_equiv_pos_as_xyz
  1  'x, y, z'
loop_
 _atom_site_type_symbol
 _atom_site_label
 _atom_site_symmetry_multiplicity
 _atom_site_fract_x
 _atom_site_fract_y
 _atom_site_fract_z
 _atom_site_occupancy
  Cu  Cu1  1  0.333333  0.666667  0.250000  1
  Cu  Cu2  1  0.666667  0.333333  0.750000  1
  Cu  Cu3  1  0.833288  0.884065  0.750000  1
  Cu  Cu4  1  0.050777  0.166712  0.750000  1
  Cu  Cu5  1  0.115935  0.949223  0.750000  1
  Cu  Cu6  1  0.166712  0.115935  0.250000  1
  Cu  Cu7  1  0.949223  0.833288  0.250000  1
  Cu  Cu8  1  0.884065  0.050777  0.250000  1
  Cu  Cu9  1  0.582391  0.558859  0.750000  1
  Cu  Cu10  1  0.976468  0.417609  0.750000  1
  Cu  Cu11  1  0.441141  0.023532  0.750000  1
  Cu  Cu12  1  0.417609  0.441141  0.250000  1
  Cu  Cu13  1  0.023532  0.582391  0.250000  1
  Cu  Cu14  1  0.558859  0.976468  0.250000  1
  Cu  Cu15  1  0.496208  0.791306  0.750000  1
  Cu  Cu16  1  0.295098  0.503792  0.750000  1
  Cu  Cu17  1  0.208694  0.704902  0.750000  1
  Cu  Cu18  1  0.503792  0.208694  0.250000  1
  Cu  Cu19  1  0.704902  0.496208  0.250000  1
  Cu  Cu20  1  0.791306  0.295098  0.250000  1
  Sb  Sb21  1  0.893150  0.637537  0.750000  1
  Sb  Sb22  1  0.744388  0.106850  0.750000  1
  Sb  Sb23  1  0.362463  0.255612  0.750000  1
  Sb  Sb24  1  0.106850  0.362463  0.250000  1
  Sb  Sb25  1  0.255612  0.893150  0.250000  1
  Sb  Sb26  1  0.637537  0.744388  0.250000  1
